66
gebf{{frag=read charge=NPA}}
 N       -6.81500807     -0.66800154      1.60701401
 C       -5.71398772      0.00200346      2.37299089
 C       -4.35699219     -0.67299870      2.58799322
 O       -4.21199207     -1.86999463      2.49199032
 N       -3.38100080      0.12499046      2.95299800
 C       -2.06200457     -0.39000497      3.27399921
 C       -1.63600655      0.17499612      4.60000724
 O       -1.74400817      1.35600031      4.86199097
 C       -0.99299921     -0.04500171      2.19700167
 C        0.38999976     -0.48799013      2.64000498
 C       -1.37800150     -0.66198948      0.89701049
 N       -1.09500047     -0.70000479      5.41500454
 C       -0.57199533     -0.31100555      6.66899843
 C        0.84001601     -0.85400874      6.79200257
 O        1.02699873     -2.02200131      6.72000225
 C       -1.41099912     -0.91298908      7.79700845
 C       -0.72700584     -0.64499759      9.12301223
 C       -2.79999884     -0.34900252      7.78899635
 N        1.81000717      0.00198939      7.02300606
 C        3.19099574     -0.42899304      7.10099501
 C        3.91099259      0.25801709      8.22899215
 O        4.06399693      1.47799802      8.22799700
 C        3.87099569     -0.10299801      5.74799428
 C        5.24699862     -0.64299376      5.58099477
 N        5.86100585     -0.68899547      4.35299070
 C        6.10799181     -1.19699974      6.44801231
 C        7.05900368     -1.22700154      4.48200734
 N        7.23899786     -1.52298677      5.75101378
 N        4.36399060     -0.52699120      9.18900777
 C        5.06699613      0.01999652     10.32599226
 C        4.27100170      0.81698251     11.29599614
 O        4.35898767      2.03299404     11.36699190
 N        3.49199258      0.10401098     12.07298880
 C        2.58498638      0.67698929     13.08500481
 C        3.00599759      0.04699653     14.36101452
 O        2.95799299     -1.16900433     14.51500215
 C        1.12699955      0.32999747     12.82699481
 C        0.24799631      0.67499356     14.03798795
 C        0.67399001      1.04700146     11.59600452
 N        3.48100165      0.88700141     15.26198797
 C        4.16300283      0.39199376     16.44199186
 C        3.42400002      0.96498763     17.63099045
 O        3.13600342      2.10999946     17.61199391
 C        5.68799540      0.75001429     16.38901157
 O        6.26399949      0.13000576     15.23599420
 C        6.41999787      0.21000107     17.56899229
 N        3.17300496      0.12899699     18.64699945
 C        2.55900471      0.51600847     19.90301470
 C        3.34998801     -0.12200514     21.01400610
 O        3.36600152     -1.33901050     21.13999871
 C        1.13798326     -0.02100218     19.98301291
 O        0.39299908      0.39401168     18.82399841
 C        0.48599834      0.50100263     21.16700089
 N        4.06699918      0.68799289     21.76798888
 C        4.88800427      0.20499636     22.85099854
 C        4.35000563      0.76901044     24.17399087
 O        4.16101162      1.98101482     24.26899258
 C        6.36201153      0.61399163     22.65200237
 C        7.15199205      0.29701123     23.87399184
 C        6.95300222     -0.12099895     21.45499922
 N        4.06500852     -0.11998297     25.15099103
 C        3.72000682      0.31300568     26.51500903
 C        4.94098706      0.13999153     27.42001552
 O        5.71400070     -0.80899285     27.28700217
 C        2.49900221     -0.42200178     27.06199389
 O        5.24999203      0.95500975     28.29400598

 
 
 
